LTspice 24.1.10 for Windows
Circuit: C:\Users\leonz\source\repos\LTspice-converter-for-MSO5000-LCR-meter\LTspice-converter-for-MSO5000-LCR-meter\Data\simulation.net
Start Time: Thu Mar 19 10:15:40 2026
solver = Normal
Maximum thread count: 16
tnom = 27
temp = 27
method = modified trap
.OP point found by inspection.
Total elapsed time: 0.040 seconds.

Files loaded:
C:\Users\leonz\source\repos\LTspice-converter-for-MSO5000-LCR-meter\LTspice-converter-for-MSO5000-LCR-meter\Data\simulation.net

